Version 4
SHEET 1 880 680
WIRE 416 32 416 0
WIRE 544 32 544 0
WIRE 544 32 416 32
WIRE -96 64 -112 64
WIRE 48 64 -16 64
WIRE 112 64 48 64
WIRE 224 64 192 64
WIRE 416 64 416 32
WIRE -112 96 -112 64
WIRE 96 144 96 128
WIRE 112 144 96 144
WIRE 48 160 48 64
WIRE 80 160 48 160
WIRE 224 176 224 64
WIRE 224 176 144 176
WIRE 256 176 224 176
WIRE 528 176 336 176
WIRE -96 192 -176 192
WIRE 16 192 -16 192
WIRE 80 192 16 192
WIRE 112 208 96 208
WIRE 96 224 96 208
WIRE 16 240 16 192
WIRE -176 320 -176 272
WIRE 16 352 16 320
FLAG -112 96 0
FLAG 416 64 0
FLAG 416 -80 2.5V
FLAG 544 -80 5V
FLAG -176 320 0
FLAG 96 128 5V
FLAG 96 224 0
FLAG 528 176 OUT
FLAG 16 352 2.5V
FLAG -176 192 IN
SYMBOL res 0 176 R90
WINDOW 0 0 56 VBottom 2
WINDOW 3 32 56 VTop 2
SYMATTR InstName R1
SYMATTR Value 100k
SYMBOL res 0 48 R90
WINDOW 0 0 56 VBottom 2
WINDOW 3 32 56 VTop 2
SYMATTR InstName R2
SYMATTR Value 100k
SYMBOL res 208 48 R90
WINDOW 0 0 56 VBottom 2
WINDOW 3 32 56 VTop 2
SYMATTR InstName R3
SYMATTR Value 15k
SYMBOL res 352 160 R90
WINDOW 0 0 56 VBottom 2
WINDOW 3 32 56 VTop 2
SYMATTR InstName R4
SYMATTR Value 100k
SYMBOL res 0 224 R0
SYMATTR InstName R5
SYMATTR Value 15k
SYMBOL voltage 416 -96 R0
WINDOW 123 0 0 Left 0
WINDOW 39 0 0 Left 0
SYMATTR InstName V1
SYMATTR Value 2.5
SYMBOL voltage 544 -96 R0
WINDOW 123 0 0 Left 0
WINDOW 39 0 0 Left 0
SYMATTR InstName V2
SYMATTR Value 5
SYMBOL voltage -176 176 R0
WINDOW 123 0 0 Left 0
WINDOW 39 0 0 Left 0
WINDOW 3 24 96 Invisible 2
SYMATTR InstName V4
SYMATTR Value SINE(0 15 200 0 0 0 50)
SYMBOL OpAmps\\AD824 112 112 R0
SYMATTR InstName U1
TEXT -208 456 Left 2 !.tran 0.3
